/*--------------------------------*- C++ -*----------------------------------*\
  =========                 |
  \\      /  F ield         | OpenFOAM: The Open Source CFD Toolbox
   \\    /   O peration     | Website:  https://openfoam.org
    \\  /    A nd           | Version:  6.0
     \\/     M anipulation  |
\*---------------------------------------------------------------------------*/
FoamFile
{
    version     2.0;
    format      ascii;
    class       polyBoundaryMesh;
    location    "constant/polyMesh";
    object      boundary;
}
// * * * * * * * * * * * * * * * * * * * * * * * * * * * * * * * * * * * * * //

5
(
    airfoil
    {
        type            wall;
        inGroups        1(wall);
        nFaces          44;
        startFace       22216;
    }
    farBoundaries
    {
        type            patch;
        nFaces          200;
        startFace       22260;
    }
    inlet
    {
        type            patch;
        nFaces          24;
        startFace       22460;
    }
    outlet
    {
        type            patch;
        nFaces          100;
        startFace       22484;
    }
    defaultFaces
    {
        type            empty;
        inGroups        1(empty);
        nFaces          22400;
        startFace       22584;
    }
)

// ************************************************************************* //
