/*--------------------------------*- C++ -*----------------------------------*\
| =========                 |                                                 |
| \\      /  F ield         | OpenFOAM: The Open Source CFD Toolbox           |
|  \\    /   O peration     | Version:  5                                     |
|   \\  /    A nd           | Web:      www.OpenFOAM.org                      |
|    \\/     M anipulation  |                                                 |
\*---------------------------------------------------------------------------*/
FoamFile
{
    version     2.0;
    format      ascii;
    class       volVectorField;
    object      U;
}
// * * * * * * * * * * * * * * * * * * * * * * * * * * * * * * * * * * * * * //

dimensions      [0 1 -1 0 0 0 0];

internalField   uniform (0.965926 0.258819 0);

boundaryField
{
    inlet
    {
        type            uniformFixedValue;
        uniformValue    constant (0.965926 0.258819 0);
    }

    outlet
    {
        type            pressureInletOutletVelocity;
        inletValue      uniform (0.965926 0.258819 0);
        value           uniform (0.965926 0.258819 0);
    }

    walls
    {
        type            noSlip;
    }

    frontAndBack
    {
        type            empty;
    }

    airfoil
    {
        type            fixedValue;
        value           uniform (0 0 0);
    }

    farBoundaries
    {
        type            uniformFixedValue;
        uniformValue    constant (0.965926 0.258819 0);
    }
}

// ************************************************************************* //
