/*--------------------------------*- C++ -*----------------------------------*\
  =========                 |
  \\      /  F ield         | OpenFOAM: The Open Source CFD Toolbox
   \\    /   O peration     | Website:  https://openfoam.org
    \\  /    A nd           | Version:  6.0
     \\/     M anipulation  |
\*---------------------------------------------------------------------------*/
FoamFile
{
    version     2.0;
    format      ascii;
    class       polyBoundaryMesh;
    location    "constant/polyMesh";
    object      boundary;
}
// * * * * * * * * * * * * * * * * * * * * * * * * * * * * * * * * * * * * * //

5
(
    airfoil
    {
        type            wall;
        inGroups        1(wall);
        nFaces          48;
        startFace       29696;
    }
    farBoundaries
    {
        type            patch;
        nFaces          36;
        startFace       29744;
    }
    inlet
    {
        type            patch;
        nFaces          24;
        startFace       29780;
    }
    outlet
    {
        type            patch;
        nFaces          500;
        startFace       29804;
    }
    defaultFaces
    {
        type            empty;
        inGroups        1(empty);
        nFaces          30000;
        startFace       30304;
    }
)

// ************************************************************************* //
